*A Simple RC Circuit
V1 1 0 PULSE(0 5 0 1n 1n 5m 10m)
R1 1 2 1k
C1 2 0 1u
.tran 20u 10m
.end
